/*--------------------------------*- C++ -*----------------------------------*\
| =========                 |                                                 |
| \\      /  F ield         | OpenFOAM: The Open Source CFD Toolbox           |
|  \\    /   O peration     | Version:  v1912                                 |
|   \\  /    A nd           | Website:  www.openfoam.com                      |
|    \\/     M anipulation  |                                                 |
\*---------------------------------------------------------------------------*/
FoamFile
{
    version     2.0;
    format      ascii;
    class       dictionary;
    object      blockMeshDict;
}
// * * * * * * * * * * * * * * * * * * * * * * * * * * * * * * * * * * * * * //

scale   0.1;

vertices
(
    (0 0 0)  //point 0
    (1 0 0)  //point 1
    (1 1 0)  //point 2
    (0 1 0)  //point 3
    (0 0 0.1) //point 4
    (1 0 0.1) //point 5
    (1 1 0.1) //point 6
    (0 1 0.1) //point 7
//here are our new vertices
    (6 0 0)  //point 8
    (6 1 0)  //point 9
    (6 0 0.1) //point 10
    (6 1 0.1) //point 11
);

blocks
(
    hex (0 1 2 3 4 5 6 7) (20 80 1) simpleGrading (0.2 40 1)
    hex (1 8 9 2 5 10 11 6) (100 80 1) simpleGrading (6 40 1)
);

edges
(
);

boundary
(
    zeroGradientPlanes
    {
        type patch;
        faces
        (
        (1 5 4 0)  //this is the bottom left side
	(8 9 11 10)  //this is the right outlet x=2 plane
	(3 7 6 2)  //this is the top side x=0,1  top y
	(2 6 11 9 )  //this is the top side x=1,2 top y
        );
    }
	inlet
    {
        type patch;
        faces
        (
            (0 4 7 3)  //this is the left side
        );
    }
	plate
    {
        type wall;
        faces
        (
            (1 8 10 5)  //this is the wall 
        );
    }
    frontAndBack
    {
        type empty;
        faces
        (
            (0 3 2 1) // z coordinate =0
            (4 5 6 7) // z coordinate =0.1
            (1 2 9 8) 
	    (5 10 11 6)
        );
    }
);

mergePatchPairs
(
);

// ************************************************************************* //
